  Page 1                                    Thu Aug 08 16:50:14 2019

  ******************************************************************
  *                           E P A N E T                          *
  *                   Hydraulic and Water Quality                  *
  *                   Analysis for Pipe Networks                   *
  *                         Version 2.00.12                        *
  ******************************************************************
  
  Analysis begun Thu Aug 08 16:50:14 2019

  Analysis ended Thu Aug 08 16:50:14 2019
